ieee.odm.test/testdata/ieee_format/2area_pf.dat
                               100.0
BUS DATA FOLLOWS                      6 ITEMS
   1 BD   AR1GEN1  1  1  2 1.0300 -44.25      .00      .00   790.00   77.59  230.00 1.0300  500.00 -150.00   .0000   .0000    0    1
   2 BD   AR1GEN2  1  1  2 1.0100 -55.09      .00      .00   790.00  363.59  230.00 1.0100  500.00 -150.00   .0000   .0000    0    2
   3 BD   AR2GEN1  2  2  3 1.0300    .00      .00      .00   719.19   71.85  230.00 1.0300  500.00 -150.00   .0000   .0000    0    3
   4 BD   AR2GEN2  2  2  2 1.0100  -9.85      .00      .00   740.00  212.38  230.00 1.0100  500.00 -150.00   .0000   .0000    0    4
   5 B      LOAD1  1  1  0  .9773 -64.04  1241.00   100.00      .00     .00  230.00  .0000   .0000   .0000   .0000  2.2350    0    5
   6 B      LOAD2  2  2  0  .9898 -18.08  1699.00   100.00      .00     .00  230.00  .0000   .0000   .0000   .0000  2.5800    0    6
-999
BRANCH DATA FOLLOWS                   5 ITEMS                                   
   1    2  1  1 1 0   .002500   .025000    .00000    0.    0.    0.    0 0   .0000     .00  .0000  .0000 .00000   .0000  .0000     1
   2    5  1  1 1 0   .001000   .010000    .00000    0.    0.    0.    0 0   .0000     .00  .0000  .0000 .00000   .0000  .0000     2
   5    6  2  2 1 0   .022000   .220000    .00000    0.    0.    0.    0 0   .0000     .00  .0000  .0000 .00000   .0000  .0000     3
   3    4  2  2 1 0   .002500   .025000    .00000    0.    0.    0.    0 0   .0000     .00  .0000  .0000 .00000   .0000  .0000     4
   4    6  2  2 1 0   .001000   .010000    .00000    0.    0.    0.    0 0   .0000     .00  .0000  .0000 .00000   .0000  .0000     5
-999
LOSS ZONES FOLLOWS                    6 ITEMS                                   
  0                                                                                                                                1
  0                                                                                                                                2
  0                                                                                                                                3
  0                                                                                                                                4
  1  1                                                                                                                             5
  2  2                                                                                                                             6
-99
INTERCHANGE DATA FOLLOWS              2 ITEMS                                   
 1    1 BD   AR1GEN1   600.0   3.00  AREA1   AREA1                                                                                 1
 2    3 BD   AR2GEN1  -600.0   3.00  AREA2   AREA2                                                                                 2
-9
TIE LINES FOLLOW                      1 ITEMS                                   
   5   1     6   2  1                                                                                                              1
-999
